! Distribution Lines

New LineCode.Default nphases=3 r1=0.306 x1=0.627 r0=0.592 x0=1.461 normamps=730

New LineCode.477_ACSR nphases=3 r1=0.306 x1=0.627 r0=0.592 x0=1.461 normamps=730
New LineCode.336.4_ACSR nphases=3 r1=0.306 x1=0.626 r0=0.592 x0=1.463 normamps=530
New LineCode.#2_ACSR nphases=3 r1=1.69 x1=0.726 r0=1.978 x0=1.766 normamps=180

! Line Segments

New Line.line_EDGE-000001 bus1=bus_SUB-001 bus2=bus_FDR-0001-HEAD linecode=477_ACSR length=0.0100 units=mi phases=3
New Line.line_EDGE-000002 bus1=bus_FDR-0001-HEAD bus2=bus_JCT-FDR-0001-001 linecode=477_ACSR length=0.0400 units=mi phases=3
New Line.line_EDGE-000003 bus1=bus_JCT-FDR-0001-001 bus2=bus_FUSE-XFMR-000001 linecode=Default length=0.0012 units=mi phases=3
New Line.line_EDGE-000004 bus1=bus_FUSE-XFMR-000001 bus2=bus_XFMR-000001 linecode=Default length=0.0068 units=mi phases=3
New Line.line_EDGE-000005 bus1=bus_JCT-FDR-0001-001 bus2=bus_FUSE-XFMR-000002 linecode=Default length=0.0060 units=mi phases=3
New Line.line_EDGE-000006 bus1=bus_FUSE-XFMR-000002 bus2=bus_XFMR-000002 linecode=Default length=0.0340 units=mi phases=3
New Line.line_EDGE-000007 bus1=bus_JCT-FDR-0001-001 bus2=bus_FUSE-XFMR-000003 linecode=Default length=0.0124 units=mi phases=3
New Line.line_EDGE-000008 bus1=bus_FUSE-XFMR-000003 bus2=bus_XFMR-000003 linecode=Default length=0.0705 units=mi phases=3
New Line.line_EDGE-000009 bus1=bus_JCT-FDR-0001-001 bus2=bus_FUSE-XFMR-000004 linecode=Default length=0.0192 units=mi phases=3
New Line.line_EDGE-000010 bus1=bus_FUSE-XFMR-000004 bus2=bus_XFMR-000004 linecode=Default length=0.1088 units=mi phases=3
New Line.line_EDGE-000011 bus1=bus_JCT-FDR-0001-001 bus2=bus_FUSE-XFMR-000005 linecode=#2_ACSR length=0.0251 units=mi phases=3
New Line.line_EDGE-000012 bus1=bus_FUSE-XFMR-000005 bus2=bus_XFMR-000005 linecode=#2_ACSR length=0.1420 units=mi phases=3
New Line.line_EDGE-000013 bus1=bus_JCT-FDR-0001-001 bus2=bus_FUSE-XFMR-000006 linecode=Default length=0.0324 units=mi phases=3
New Line.line_EDGE-000014 bus1=bus_FUSE-XFMR-000006 bus2=bus_XFMR-000006 linecode=Default length=0.1836 units=mi phases=3
New Line.line_EDGE-000015 bus1=bus_JCT-FDR-0001-001 bus2=bus_FUSE-XFMR-000007 linecode=Default length=0.0383 units=mi phases=3
New Line.line_EDGE-000016 bus1=bus_FUSE-XFMR-000007 bus2=bus_XFMR-000007 linecode=Default length=0.2167 units=mi phases=3
New Line.line_EDGE-000017 bus1=bus_JCT-FDR-0001-001 bus2=bus_FUSE-XFMR-000008 linecode=Default length=0.0450 units=mi phases=3
New Line.line_EDGE-000018 bus1=bus_FUSE-XFMR-000008 bus2=bus_XFMR-000008 linecode=Default length=0.2550 units=mi phases=3
New Line.line_EDGE-000019 bus1=bus_JCT-FDR-0001-001 bus2=bus_FUSE-XFMR-000009 linecode=#2_ACSR length=0.0513 units=mi phases=3
New Line.line_EDGE-000020 bus1=bus_FUSE-XFMR-000009 bus2=bus_XFMR-000009 linecode=#2_ACSR length=0.2907 units=mi phases=3
New Line.line_EDGE-000021 bus1=bus_JCT-FDR-0001-001 bus2=bus_FUSE-XFMR-000010 linecode=Default length=0.0572 units=mi phases=3
New Line.line_EDGE-000022 bus1=bus_FUSE-XFMR-000010 bus2=bus_XFMR-000010 linecode=Default length=0.3238 units=mi phases=3
New Line.line_EDGE-000023 bus1=bus_JCT-FDR-0001-001 bus2=bus_FUSE-XFMR-000011 linecode=Default length=0.0639 units=mi phases=3
New Line.line_EDGE-000024 bus1=bus_FUSE-XFMR-000011 bus2=bus_XFMR-000011 linecode=Default length=0.3621 units=mi phases=3
New Line.line_EDGE-000025 bus1=bus_JCT-FDR-0001-001 bus2=bus_FUSE-XFMR-000012 linecode=Default length=0.0705 units=mi phases=3
New Line.line_EDGE-000026 bus1=bus_FUSE-XFMR-000012 bus2=bus_XFMR-000012 linecode=Default length=0.3995 units=mi phases=3
New Line.line_EDGE-000027 bus1=bus_JCT-FDR-0001-001 bus2=bus_JCT-FDR-0001-002 linecode=477_ACSR length=0.5100 units=mi phases=3
New Line.line_EDGE-000028 bus1=bus_JCT-FDR-0001-002 bus2=bus_FUSE-XFMR-000013 linecode=#2_ACSR length=0.0010 units=mi phases=3
New Line.line_EDGE-000029 bus1=bus_FUSE-XFMR-000013 bus2=bus_XFMR-000013 linecode=#2_ACSR length=0.0059 units=mi phases=3
New Line.line_EDGE-000030 bus1=bus_JCT-FDR-0001-002 bus2=bus_FUSE-XFMR-000014 linecode=Default length=0.0072 units=mi phases=3
New Line.line_EDGE-000031 bus1=bus_FUSE-XFMR-000014 bus2=bus_XFMR-000014 linecode=Default length=0.0408 units=mi phases=3
New Line.line_EDGE-000032 bus1=bus_JCT-FDR-0001-002 bus2=bus_FUSE-XFMR-000015 linecode=Default length=0.0132 units=mi phases=3
New Line.line_EDGE-000033 bus1=bus_FUSE-XFMR-000015 bus2=bus_XFMR-000015 linecode=Default length=0.0748 units=mi phases=3
New Line.line_EDGE-000034 bus1=bus_JCT-FDR-0001-002 bus2=bus_FUSE-XFMR-000016 linecode=Default length=0.0195 units=mi phases=3
New Line.line_EDGE-000035 bus1=bus_FUSE-XFMR-000016 bus2=bus_XFMR-000016 linecode=Default length=0.1105 units=mi phases=3
New Line.line_EDGE-000036 bus1=bus_JCT-FDR-0001-002 bus2=bus_FUSE-XFMR-000017 linecode=Default length=0.0258 units=mi phases=3
New Line.line_EDGE-000037 bus1=bus_FUSE-XFMR-000017 bus2=bus_XFMR-000017 linecode=Default length=0.1462 units=mi phases=3
New Line.line_EDGE-000038 bus1=bus_JCT-FDR-0001-002 bus2=bus_FUSE-XFMR-000018 linecode=Default length=0.0318 units=mi phases=3
New Line.line_EDGE-000039 bus1=bus_FUSE-XFMR-000018 bus2=bus_XFMR-000018 linecode=Default length=0.1802 units=mi phases=3
New Line.line_EDGE-000040 bus1=bus_JCT-FDR-0001-002 bus2=bus_FUSE-XFMR-000019 linecode=Default length=0.0385 units=mi phases=3
New Line.line_EDGE-000041 bus1=bus_FUSE-XFMR-000019 bus2=bus_XFMR-000019 linecode=Default length=0.2184 units=mi phases=3
New Line.line_EDGE-000042 bus1=bus_JCT-FDR-0001-002 bus2=bus_FUSE-XFMR-000020 linecode=#2_ACSR length=0.0450 units=mi phases=3
New Line.line_EDGE-000043 bus1=bus_FUSE-XFMR-000020 bus2=bus_XFMR-000020 linecode=#2_ACSR length=0.2550 units=mi phases=3
New Line.line_EDGE-000044 bus1=bus_JCT-FDR-0001-002 bus2=bus_FUSE-XFMR-000021 linecode=#2_ACSR length=0.0512 units=mi phases=3
New Line.line_EDGE-000045 bus1=bus_FUSE-XFMR-000021 bus2=bus_XFMR-000021 linecode=#2_ACSR length=0.2898 units=mi phases=3
New Line.line_EDGE-000046 bus1=bus_JCT-FDR-0001-002 bus2=bus_FUSE-XFMR-000022 linecode=Default length=0.0574 units=mi phases=3
New Line.line_EDGE-000047 bus1=bus_FUSE-XFMR-000022 bus2=bus_XFMR-000022 linecode=Default length=0.3255 units=mi phases=3
New Line.line_EDGE-000048 bus1=bus_JCT-FDR-0001-002 bus2=bus_FUSE-XFMR-000023 linecode=Default length=0.0636 units=mi phases=3
New Line.line_EDGE-000049 bus1=bus_FUSE-XFMR-000023 bus2=bus_XFMR-000023 linecode=Default length=0.3604 units=mi phases=3
New Line.line_EDGE-000050 bus1=bus_JCT-FDR-0001-002 bus2=bus_FUSE-XFMR-000024 linecode=Default length=0.0703 units=mi phases=3
New Line.line_EDGE-000051 bus1=bus_FUSE-XFMR-000024 bus2=bus_XFMR-000024 linecode=Default length=0.3987 units=mi phases=3
New Line.line_EDGE-000052 bus1=bus_JCT-FDR-0001-002 bus2=bus_JCT-FDR-0001-003 linecode=477_ACSR length=0.5100 units=mi phases=3
New Line.line_EDGE-000053 bus1=bus_JCT-FDR-0001-003 bus2=bus_FUSE-XFMR-000025 linecode=Default length=0.0012 units=mi phases=3
New Line.line_EDGE-000054 bus1=bus_FUSE-XFMR-000025 bus2=bus_XFMR-000025 linecode=Default length=0.0068 units=mi phases=3
New Line.line_EDGE-000055 bus1=bus_JCT-FDR-0001-003 bus2=bus_FUSE-XFMR-000026 linecode=#2_ACSR length=0.0063 units=mi phases=3
New Line.line_EDGE-000056 bus1=bus_FUSE-XFMR-000026 bus2=bus_XFMR-000026 linecode=#2_ACSR length=0.0357 units=mi phases=3
New Line.line_EDGE-000057 bus1=bus_JCT-FDR-0001-003 bus2=bus_FUSE-XFMR-000027 linecode=Default length=0.0126 units=mi phases=3
New Line.line_EDGE-000058 bus1=bus_FUSE-XFMR-000027 bus2=bus_XFMR-000027 linecode=Default length=0.0714 units=mi phases=3
New Line.line_EDGE-000059 bus1=bus_JCT-FDR-0001-003 bus2=bus_FUSE-XFMR-000028 linecode=#2_ACSR length=0.0195 units=mi phases=3
New Line.line_EDGE-000060 bus1=bus_FUSE-XFMR-000028 bus2=bus_XFMR-000028 linecode=#2_ACSR length=0.1105 units=mi phases=3
New Line.line_EDGE-000061 bus1=bus_JCT-FDR-0001-003 bus2=bus_FUSE-XFMR-000029 linecode=#2_ACSR length=0.0253 units=mi phases=3
New Line.line_EDGE-000062 bus1=bus_FUSE-XFMR-000029 bus2=bus_XFMR-000029 linecode=#2_ACSR length=0.1437 units=mi phases=3
New Line.line_EDGE-000063 bus1=bus_JCT-FDR-0001-003 bus2=bus_FUSE-XFMR-000030 linecode=#2_ACSR length=0.0315 units=mi phases=3
New Line.line_EDGE-000064 bus1=bus_FUSE-XFMR-000030 bus2=bus_XFMR-000030 linecode=#2_ACSR length=0.1785 units=mi phases=3
New Line.line_EDGE-000065 bus1=bus_JCT-FDR-0001-003 bus2=bus_FUSE-XFMR-000031 linecode=Default length=0.0381 units=mi phases=3
New Line.line_EDGE-000066 bus1=bus_FUSE-XFMR-000031 bus2=bus_XFMR-000031 linecode=Default length=0.2159 units=mi phases=3
New Line.line_EDGE-000067 bus1=bus_JCT-FDR-0001-003 bus2=bus_FUSE-XFMR-000032 linecode=Default length=0.0441 units=mi phases=3
New Line.line_EDGE-000068 bus1=bus_FUSE-XFMR-000032 bus2=bus_XFMR-000032 linecode=Default length=0.2499 units=mi phases=3
New Line.line_EDGE-000069 bus1=bus_JCT-FDR-0001-003 bus2=bus_FUSE-XFMR-000033 linecode=Default length=0.0512 units=mi phases=3
New Line.line_EDGE-000070 bus1=bus_FUSE-XFMR-000033 bus2=bus_XFMR-000033 linecode=Default length=0.2898 units=mi phases=3
New Line.line_EDGE-000071 bus1=bus_JCT-FDR-0001-003 bus2=bus_FUSE-XFMR-000034 linecode=Default length=0.0579 units=mi phases=3
New Line.line_EDGE-000072 bus1=bus_FUSE-XFMR-000034 bus2=bus_XFMR-000034 linecode=Default length=0.3281 units=mi phases=3
New Line.line_EDGE-000073 bus1=bus_JCT-FDR-0001-003 bus2=bus_FUSE-XFMR-000035 linecode=#2_ACSR length=0.0639 units=mi phases=3
New Line.line_EDGE-000074 bus1=bus_FUSE-XFMR-000035 bus2=bus_XFMR-000035 linecode=#2_ACSR length=0.3621 units=mi phases=3
New Line.line_EDGE-000075 bus1=bus_JCT-FDR-0001-003 bus2=bus_FUSE-XFMR-000036 linecode=Default length=0.0696 units=mi phases=3
New Line.line_EDGE-000076 bus1=bus_FUSE-XFMR-000036 bus2=bus_XFMR-000036 linecode=Default length=0.3944 units=mi phases=3
New Line.line_EDGE-000077 bus1=bus_JCT-FDR-0001-003 bus2=bus_JCT-FDR-0001-004 linecode=477_ACSR length=0.5100 units=mi phases=3
New Line.line_EDGE-000078 bus1=bus_JCT-FDR-0001-004 bus2=bus_FUSE-XFMR-000037 linecode=#2_ACSR length=0.0010 units=mi phases=3
New Line.line_EDGE-000079 bus1=bus_FUSE-XFMR-000037 bus2=bus_XFMR-000037 linecode=#2_ACSR length=0.0059 units=mi phases=3
New Line.line_EDGE-000080 bus1=bus_JCT-FDR-0001-004 bus2=bus_FUSE-XFMR-000038 linecode=Default length=0.0065 units=mi phases=3
New Line.line_EDGE-000081 bus1=bus_FUSE-XFMR-000038 bus2=bus_XFMR-000038 linecode=Default length=0.0366 units=mi phases=3
New Line.line_EDGE-000082 bus1=bus_JCT-FDR-0001-004 bus2=bus_FUSE-XFMR-000039 linecode=Default length=0.0129 units=mi phases=3
New Line.line_EDGE-000083 bus1=bus_FUSE-XFMR-000039 bus2=bus_XFMR-000039 linecode=Default length=0.0731 units=mi phases=3
New Line.line_EDGE-000084 bus1=bus_JCT-FDR-0001-004 bus2=bus_FUSE-XFMR-000040 linecode=Default length=0.0194 units=mi phases=3
New Line.line_EDGE-000085 bus1=bus_FUSE-XFMR-000040 bus2=bus_XFMR-000040 linecode=Default length=0.1097 units=mi phases=3
New Line.line_EDGE-000086 bus1=bus_JCT-FDR-0001-004 bus2=bus_FUSE-XFMR-000041 linecode=Default length=0.0252 units=mi phases=3
New Line.line_EDGE-000087 bus1=bus_FUSE-XFMR-000041 bus2=bus_XFMR-000041 linecode=Default length=0.1428 units=mi phases=3
New Line.line_EDGE-000088 bus1=bus_JCT-FDR-0001-004 bus2=bus_FUSE-XFMR-000042 linecode=Default length=0.0313 units=mi phases=3
New Line.line_EDGE-000089 bus1=bus_FUSE-XFMR-000042 bus2=bus_XFMR-000042 linecode=Default length=0.1777 units=mi phases=3
New Line.line_EDGE-000090 bus1=bus_JCT-FDR-0001-004 bus2=bus_FUSE-XFMR-000043 linecode=Default length=0.0383 units=mi phases=3
New Line.line_EDGE-000091 bus1=bus_FUSE-XFMR-000043 bus2=bus_XFMR-000043 linecode=Default length=0.2167 units=mi phases=3
New Line.line_EDGE-000092 bus1=bus_JCT-FDR-0001-004 bus2=bus_FUSE-XFMR-000044 linecode=Default length=0.0442 units=mi phases=3
New Line.line_EDGE-000093 bus1=bus_FUSE-XFMR-000044 bus2=bus_XFMR-000044 linecode=Default length=0.2508 units=mi phases=3
New Line.line_EDGE-000094 bus1=bus_JCT-FDR-0001-004 bus2=bus_FUSE-XFMR-000045 linecode=Default length=0.0502 units=mi phases=3
New Line.line_EDGE-000095 bus1=bus_FUSE-XFMR-000045 bus2=bus_XFMR-000045 linecode=Default length=0.2848 units=mi phases=3
New Line.line_EDGE-000096 bus1=bus_JCT-FDR-0001-004 bus2=bus_FUSE-XFMR-000046 linecode=Default length=0.0573 units=mi phases=3
New Line.line_EDGE-000097 bus1=bus_FUSE-XFMR-000046 bus2=bus_XFMR-000046 linecode=Default length=0.3247 units=mi phases=3
New Line.line_EDGE-000098 bus1=bus_JCT-FDR-0001-004 bus2=bus_FUSE-XFMR-000047 linecode=Default length=0.0636 units=mi phases=3
New Line.line_EDGE-000099 bus1=bus_FUSE-XFMR-000047 bus2=bus_XFMR-000047 linecode=Default length=0.3604 units=mi phases=3
New Line.line_EDGE-000100 bus1=bus_JCT-FDR-0001-004 bus2=bus_FUSE-XFMR-000048 linecode=#2_ACSR length=0.0696 units=mi phases=3
New Line.line_EDGE-000101 bus1=bus_FUSE-XFMR-000048 bus2=bus_XFMR-000048 linecode=#2_ACSR length=0.3944 units=mi phases=3
New Line.line_EDGE-000102 bus1=bus_JCT-FDR-0001-004 bus2=bus_JCT-FDR-0001-005 linecode=477_ACSR length=0.5100 units=mi phases=3
New Line.line_EDGE-000103 bus1=bus_JCT-FDR-0001-005 bus2=bus_FUSE-XFMR-000049 linecode=#2_ACSR length=0.0012 units=mi phases=3
New Line.line_EDGE-000104 bus1=bus_FUSE-XFMR-000049 bus2=bus_XFMR-000049 linecode=#2_ACSR length=0.0068 units=mi phases=3
New Line.line_EDGE-000105 bus1=bus_JCT-FDR-0001-005 bus2=bus_FUSE-XFMR-000050 linecode=Default length=0.0063 units=mi phases=3
New Line.line_EDGE-000106 bus1=bus_FUSE-XFMR-000050 bus2=bus_XFMR-000050 linecode=Default length=0.0357 units=mi phases=3
New Line.line_EDGE-000107 bus1=bus_JCT-FDR-0001-005 bus2=bus_FUSE-XFMR-000051 linecode=Default length=0.0129 units=mi phases=3
New Line.line_EDGE-000108 bus1=bus_FUSE-XFMR-000051 bus2=bus_XFMR-000051 linecode=Default length=0.0731 units=mi phases=3
New Line.line_EDGE-000109 bus1=bus_JCT-FDR-0001-005 bus2=bus_FUSE-XFMR-000052 linecode=Default length=0.0191 units=mi phases=3
New Line.line_EDGE-000110 bus1=bus_FUSE-XFMR-000052 bus2=bus_XFMR-000052 linecode=Default length=0.1080 units=mi phases=3
New Line.line_EDGE-000111 bus1=bus_JCT-FDR-0001-005 bus2=bus_FUSE-XFMR-000053 linecode=#2_ACSR length=0.0249 units=mi phases=3
New Line.line_EDGE-000112 bus1=bus_FUSE-XFMR-000053 bus2=bus_XFMR-000053 linecode=#2_ACSR length=0.1411 units=mi phases=3
New Line.line_EDGE-000113 bus1=bus_JCT-FDR-0001-005 bus2=bus_FUSE-XFMR-000054 linecode=Default length=0.0310 units=mi phases=3
New Line.line_EDGE-000114 bus1=bus_FUSE-XFMR-000054 bus2=bus_XFMR-000054 linecode=Default length=0.1759 units=mi phases=3
New Line.line_EDGE-000115 bus1=bus_JCT-FDR-0001-005 bus2=bus_FUSE-XFMR-000055 linecode=Default length=0.0378 units=mi phases=3
New Line.line_EDGE-000116 bus1=bus_FUSE-XFMR-000055 bus2=bus_XFMR-000055 linecode=Default length=0.2142 units=mi phases=3
New Line.line_EDGE-000117 bus1=bus_JCT-FDR-0001-005 bus2=bus_FUSE-XFMR-000056 linecode=Default length=0.0440 units=mi phases=3
New Line.line_EDGE-000118 bus1=bus_FUSE-XFMR-000056 bus2=bus_XFMR-000056 linecode=Default length=0.2491 units=mi phases=3
New Line.line_EDGE-000119 bus1=bus_JCT-FDR-0001-005 bus2=bus_FUSE-XFMR-000057 linecode=Default length=0.0510 units=mi phases=3
New Line.line_EDGE-000120 bus1=bus_FUSE-XFMR-000057 bus2=bus_XFMR-000057 linecode=Default length=0.2890 units=mi phases=3
New Line.line_EDGE-000121 bus1=bus_JCT-FDR-0001-005 bus2=bus_FUSE-XFMR-000058 linecode=Default length=0.0566 units=mi phases=3
New Line.line_EDGE-000122 bus1=bus_FUSE-XFMR-000058 bus2=bus_XFMR-000058 linecode=Default length=0.3205 units=mi phases=3
New Line.line_EDGE-000123 bus1=bus_JCT-FDR-0001-005 bus2=bus_FUSE-XFMR-000059 linecode=Default length=0.0638 units=mi phases=3
New Line.line_EDGE-000124 bus1=bus_FUSE-XFMR-000059 bus2=bus_XFMR-000059 linecode=Default length=0.3613 units=mi phases=3
New Line.line_EDGE-000125 bus1=bus_JCT-FDR-0001-005 bus2=bus_FUSE-XFMR-000060 linecode=Default length=0.0699 units=mi phases=3
New Line.line_EDGE-000126 bus1=bus_FUSE-XFMR-000060 bus2=bus_XFMR-000060 linecode=Default length=0.3961 units=mi phases=3
New Line.line_EDGE-000127 bus1=bus_JCT-FDR-0001-005 bus2=bus_JCT-FDR-0001-006 linecode=477_ACSR length=0.5100 units=mi phases=3
New Line.line_EDGE-000128 bus1=bus_JCT-FDR-0001-006 bus2=bus_FUSE-XFMR-000061 linecode=Default length=0.0010 units=mi phases=3
New Line.line_EDGE-000129 bus1=bus_FUSE-XFMR-000061 bus2=bus_XFMR-000061 linecode=Default length=0.0059 units=mi phases=3
New Line.line_EDGE-000130 bus1=bus_JCT-FDR-0001-006 bus2=bus_FUSE-XFMR-000062 linecode=#2_ACSR length=0.0066 units=mi phases=3
New Line.line_EDGE-000131 bus1=bus_FUSE-XFMR-000062 bus2=bus_XFMR-000062 linecode=#2_ACSR length=0.0374 units=mi phases=3
New Line.line_EDGE-000132 bus1=bus_JCT-FDR-0001-006 bus2=bus_FUSE-XFMR-000063 linecode=Default length=0.0129 units=mi phases=3
New Line.line_EDGE-000133 bus1=bus_FUSE-XFMR-000063 bus2=bus_XFMR-000063 linecode=Default length=0.0731 units=mi phases=3
New Line.line_EDGE-000134 bus1=bus_JCT-FDR-0001-006 bus2=bus_FUSE-XFMR-000064 linecode=Default length=0.0184 units=mi phases=3
New Line.line_EDGE-000135 bus1=bus_FUSE-XFMR-000064 bus2=bus_XFMR-000064 linecode=Default length=0.1045 units=mi phases=3
New Line.line_EDGE-000136 bus1=bus_JCT-FDR-0001-006 bus2=bus_FUSE-XFMR-000065 linecode=#2_ACSR length=0.0255 units=mi phases=3
New Line.line_EDGE-000137 bus1=bus_FUSE-XFMR-000065 bus2=bus_XFMR-000065 linecode=#2_ACSR length=0.1445 units=mi phases=3
New Line.line_EDGE-000138 bus1=bus_JCT-FDR-0001-006 bus2=bus_FUSE-XFMR-000066 linecode=#2_ACSR length=0.0315 units=mi phases=3
New Line.line_EDGE-000139 bus1=bus_FUSE-XFMR-000066 bus2=bus_XFMR-000066 linecode=#2_ACSR length=0.1785 units=mi phases=3
New Line.line_EDGE-000140 bus1=bus_JCT-FDR-0001-006 bus2=bus_FUSE-XFMR-000067 linecode=Default length=0.0384 units=mi phases=3
New Line.line_EDGE-000141 bus1=bus_FUSE-XFMR-000067 bus2=bus_XFMR-000067 linecode=Default length=0.2176 units=mi phases=3
New Line.line_EDGE-000142 bus1=bus_JCT-FDR-0001-006 bus2=bus_FUSE-XFMR-000068 linecode=Default length=0.0441 units=mi phases=3
New Line.line_EDGE-000143 bus1=bus_FUSE-XFMR-000068 bus2=bus_XFMR-000068 linecode=Default length=0.2499 units=mi phases=3
New Line.line_EDGE-000144 bus1=bus_JCT-FDR-0001-006 bus2=bus_FUSE-XFMR-000069 linecode=Default length=0.0512 units=mi phases=3
New Line.line_EDGE-000145 bus1=bus_FUSE-XFMR-000069 bus2=bus_XFMR-000069 linecode=Default length=0.2898 units=mi phases=3
New Line.line_EDGE-000146 bus1=bus_JCT-FDR-0001-006 bus2=bus_FUSE-XFMR-000070 linecode=Default length=0.0572 units=mi phases=3
New Line.line_EDGE-000147 bus1=bus_FUSE-XFMR-000070 bus2=bus_XFMR-000070 linecode=Default length=0.3238 units=mi phases=3
New Line.line_EDGE-000148 bus1=bus_JCT-FDR-0001-006 bus2=bus_FUSE-XFMR-000071 linecode=#2_ACSR length=0.0631 units=mi phases=3
New Line.line_EDGE-000149 bus1=bus_FUSE-XFMR-000071 bus2=bus_XFMR-000071 linecode=#2_ACSR length=0.3578 units=mi phases=3
New Line.line_EDGE-000150 bus1=bus_JCT-FDR-0001-006 bus2=bus_FUSE-XFMR-000072 linecode=Default length=0.0699 units=mi phases=3
New Line.line_EDGE-000151 bus1=bus_FUSE-XFMR-000072 bus2=bus_XFMR-000072 linecode=Default length=0.3961 units=mi phases=3
New Line.line_EDGE-000152 bus1=bus_JCT-FDR-0001-006 bus2=bus_JCT-FDR-0001-007 linecode=477_ACSR length=0.5100 units=mi phases=3
New Line.line_EDGE-000153 bus1=bus_JCT-FDR-0001-007 bus2=bus_FUSE-XFMR-000073 linecode=Default length=0.0010 units=mi phases=3
New Line.line_EDGE-000154 bus1=bus_FUSE-XFMR-000073 bus2=bus_XFMR-000073 linecode=Default length=0.0059 units=mi phases=3
New Line.line_EDGE-000155 bus1=bus_JCT-FDR-0001-007 bus2=bus_FUSE-XFMR-000074 linecode=Default length=0.0070 units=mi phases=3
New Line.line_EDGE-000156 bus1=bus_FUSE-XFMR-000074 bus2=bus_XFMR-000074 linecode=Default length=0.0399 units=mi phases=3
New Line.line_EDGE-000157 bus1=bus_JCT-FDR-0001-007 bus2=bus_FUSE-XFMR-000075 linecode=#2_ACSR length=0.0134 units=mi phases=3
New Line.line_EDGE-000158 bus1=bus_FUSE-XFMR-000075 bus2=bus_XFMR-000075 linecode=#2_ACSR length=0.0756 units=mi phases=3
New Line.line_EDGE-000159 bus1=bus_JCT-FDR-0001-007 bus2=bus_FUSE-XFMR-000076 linecode=Default length=0.0192 units=mi phases=3
New Line.line_EDGE-000160 bus1=bus_FUSE-XFMR-000076 bus2=bus_XFMR-000076 linecode=Default length=0.1088 units=mi phases=3
New Line.line_EDGE-000161 bus1=bus_JCT-FDR-0001-007 bus2=bus_FUSE-XFMR-000077 linecode=Default length=0.0256 units=mi phases=3
New Line.line_EDGE-000162 bus1=bus_FUSE-XFMR-000077 bus2=bus_XFMR-000077 linecode=Default length=0.1453 units=mi phases=3
New Line.line_EDGE-000163 bus1=bus_JCT-FDR-0001-007 bus2=bus_FUSE-XFMR-000078 linecode=Default length=0.0316 units=mi phases=3
New Line.line_EDGE-000164 bus1=bus_FUSE-XFMR-000078 bus2=bus_XFMR-000078 linecode=Default length=0.1794 units=mi phases=3
New Line.line_EDGE-000165 bus1=bus_JCT-FDR-0001-007 bus2=bus_FUSE-XFMR-000079 linecode=Default length=0.0383 units=mi phases=3
New Line.line_EDGE-000166 bus1=bus_FUSE-XFMR-000079 bus2=bus_XFMR-000079 linecode=Default length=0.2167 units=mi phases=3
New Line.line_EDGE-000167 bus1=bus_JCT-FDR-0001-007 bus2=bus_FUSE-XFMR-000080 linecode=Default length=0.0444 units=mi phases=3
New Line.line_EDGE-000168 bus1=bus_FUSE-XFMR-000080 bus2=bus_XFMR-000080 linecode=Default length=0.2516 units=mi phases=3
New Line.line_EDGE-000169 bus1=bus_JCT-FDR-0001-007 bus2=bus_FUSE-XFMR-000081 linecode=#2_ACSR length=0.0515 units=mi phases=3
New Line.line_EDGE-000170 bus1=bus_FUSE-XFMR-000081 bus2=bus_XFMR-000081 linecode=#2_ACSR length=0.2916 units=mi phases=3
New Line.line_EDGE-000171 bus1=bus_JCT-FDR-0001-007 bus2=bus_FUSE-XFMR-000082 linecode=Default length=0.0574 units=mi phases=3
New Line.line_EDGE-000172 bus1=bus_FUSE-XFMR-000082 bus2=bus_XFMR-000082 linecode=Default length=0.3255 units=mi phases=3
New Line.line_EDGE-000173 bus1=bus_JCT-FDR-0001-007 bus2=bus_FUSE-XFMR-000083 linecode=#2_ACSR length=0.0636 units=mi phases=3
New Line.line_EDGE-000174 bus1=bus_FUSE-XFMR-000083 bus2=bus_XFMR-000083 linecode=#2_ACSR length=0.3604 units=mi phases=3
New Line.line_EDGE-000175 bus1=bus_JCT-FDR-0001-007 bus2=bus_FUSE-XFMR-000084 linecode=#2_ACSR length=0.0702 units=mi phases=3
New Line.line_EDGE-000176 bus1=bus_FUSE-XFMR-000084 bus2=bus_XFMR-000084 linecode=#2_ACSR length=0.3978 units=mi phases=3
New Line.line_EDGE-000177 bus1=bus_JCT-FDR-0001-007 bus2=bus_JCT-FDR-0001-008 linecode=477_ACSR length=0.5100 units=mi phases=3
New Line.line_EDGE-000178 bus1=bus_JCT-FDR-0001-008 bus2=bus_FUSE-XFMR-000085 linecode=#2_ACSR length=0.0008 units=mi phases=3
New Line.line_EDGE-000179 bus1=bus_FUSE-XFMR-000085 bus2=bus_XFMR-000085 linecode=#2_ACSR length=0.0042 units=mi phases=3
New Line.line_EDGE-000180 bus1=bus_JCT-FDR-0001-008 bus2=bus_FUSE-XFMR-000086 linecode=Default length=0.0065 units=mi phases=3
New Line.line_EDGE-000181 bus1=bus_FUSE-XFMR-000086 bus2=bus_XFMR-000086 linecode=Default length=0.0366 units=mi phases=3
New Line.line_EDGE-000182 bus1=bus_JCT-FDR-0001-008 bus2=bus_FUSE-XFMR-000087 linecode=Default length=0.0132 units=mi phases=3
New Line.line_EDGE-000183 bus1=bus_FUSE-XFMR-000087 bus2=bus_XFMR-000087 linecode=Default length=0.0748 units=mi phases=3
New Line.line_EDGE-000184 bus1=bus_JCT-FDR-0001-008 bus2=bus_FUSE-XFMR-000088 linecode=Default length=0.0191 units=mi phases=3
New Line.line_EDGE-000185 bus1=bus_FUSE-XFMR-000088 bus2=bus_XFMR-000088 linecode=Default length=0.1080 units=mi phases=3
New Line.line_EDGE-000186 bus1=bus_JCT-FDR-0001-008 bus2=bus_FUSE-XFMR-000089 linecode=Default length=0.0255 units=mi phases=3
New Line.line_EDGE-000187 bus1=bus_FUSE-XFMR-000089 bus2=bus_XFMR-000089 linecode=Default length=0.1445 units=mi phases=3
New Line.line_EDGE-000188 bus1=bus_JCT-FDR-0001-008 bus2=bus_FUSE-XFMR-000090 linecode=Default length=0.0321 units=mi phases=3
New Line.line_EDGE-000189 bus1=bus_FUSE-XFMR-000090 bus2=bus_XFMR-000090 linecode=Default length=0.1819 units=mi phases=3
New Line.line_EDGE-000190 bus1=bus_JCT-FDR-0001-008 bus2=bus_FUSE-XFMR-000091 linecode=Default length=0.0390 units=mi phases=3
New Line.line_EDGE-000191 bus1=bus_FUSE-XFMR-000091 bus2=bus_XFMR-000091 linecode=Default length=0.2210 units=mi phases=3
New Line.line_EDGE-000192 bus1=bus_JCT-FDR-0001-008 bus2=bus_FUSE-XFMR-000092 linecode=Default length=0.0448 units=mi phases=3
New Line.line_EDGE-000193 bus1=bus_FUSE-XFMR-000092 bus2=bus_XFMR-000092 linecode=Default length=0.2541 units=mi phases=3
New Line.line_EDGE-000194 bus1=bus_JCT-FDR-0001-008 bus2=bus_FUSE-XFMR-000093 linecode=Default length=0.0509 units=mi phases=3
New Line.line_EDGE-000195 bus1=bus_FUSE-XFMR-000093 bus2=bus_XFMR-000093 linecode=Default length=0.2881 units=mi phases=3
New Line.line_EDGE-000196 bus1=bus_JCT-FDR-0001-008 bus2=bus_FUSE-XFMR-000094 linecode=#2_ACSR length=0.0576 units=mi phases=3
New Line.line_EDGE-000197 bus1=bus_FUSE-XFMR-000094 bus2=bus_XFMR-000094 linecode=#2_ACSR length=0.3264 units=mi phases=3
New Line.line_EDGE-000198 bus1=bus_JCT-FDR-0001-008 bus2=bus_FUSE-XFMR-000095 linecode=Default length=0.0641 units=mi phases=3
New Line.line_EDGE-000199 bus1=bus_FUSE-XFMR-000095 bus2=bus_XFMR-000095 linecode=Default length=0.3630 units=mi phases=3
New Line.line_EDGE-000200 bus1=bus_JCT-FDR-0001-008 bus2=bus_FUSE-XFMR-000096 linecode=Default length=0.0702 units=mi phases=3
New Line.line_EDGE-000201 bus1=bus_FUSE-XFMR-000096 bus2=bus_XFMR-000096 linecode=Default length=0.3978 units=mi phases=3
New Line.line_EDGE-000202 bus1=bus_JCT-FDR-0001-008 bus2=bus_JCT-FDR-0001-009 linecode=477_ACSR length=0.5100 units=mi phases=3
New Line.line_EDGE-000203 bus1=bus_JCT-FDR-0001-009 bus2=bus_FUSE-XFMR-000097 linecode=Default length=0.0008 units=mi phases=3
New Line.line_EDGE-000204 bus1=bus_FUSE-XFMR-000097 bus2=bus_XFMR-000097 linecode=Default length=0.0042 units=mi phases=3
New Line.line_EDGE-000205 bus1=bus_JCT-FDR-0001-009 bus2=bus_FUSE-XFMR-000098 linecode=#2_ACSR length=0.0065 units=mi phases=3
New Line.line_EDGE-000206 bus1=bus_FUSE-XFMR-000098 bus2=bus_XFMR-000098 linecode=#2_ACSR length=0.0366 units=mi phases=3
New Line.line_EDGE-000207 bus1=bus_JCT-FDR-0001-009 bus2=bus_FDR-0001-TAIL linecode=477_ACSR length=0.0800 units=mi phases=3
New Line.line_EDGE-000208 bus1=bus_SUB-001 bus2=bus_FDR-0002-HEAD linecode=477_ACSR length=0.0100 units=mi phases=3
New Line.line_EDGE-000209 bus1=bus_FDR-0002-HEAD bus2=bus_JCT-FDR-0002-001 linecode=477_ACSR length=0.0200 units=mi phases=3
New Line.line_EDGE-000210 bus1=bus_JCT-FDR-0002-001 bus2=bus_FUSE-XFMR-000099 linecode=Default length=0.0020 units=mi phases=3
New Line.line_EDGE-000211 bus1=bus_FUSE-XFMR-000099 bus2=bus_XFMR-000099 linecode=Default length=0.0110 units=mi phases=3
New Line.line_EDGE-000212 bus1=bus_JCT-FDR-0002-001 bus2=bus_FUSE-XFMR-000100 linecode=#2_ACSR length=0.0030 units=mi phases=3
New Line.line_EDGE-000213 bus1=bus_FUSE-XFMR-000100 bus2=bus_XFMR-000100 linecode=#2_ACSR length=0.0170 units=mi phases=3
New Line.line_EDGE-000214 bus1=bus_JCT-FDR-0002-001 bus2=bus_FUSE-XFMR-000101 linecode=Default length=0.0051 units=mi phases=3
New Line.line_EDGE-000215 bus1=bus_FUSE-XFMR-000101 bus2=bus_XFMR-000101 linecode=Default length=0.0289 units=mi phases=3
New Line.line_EDGE-000216 bus1=bus_JCT-FDR-0002-001 bus2=bus_FUSE-XFMR-000102 linecode=Default length=0.0084 units=mi phases=3
New Line.line_EDGE-000217 bus1=bus_FUSE-XFMR-000102 bus2=bus_XFMR-000102 linecode=Default length=0.0476 units=mi phases=3
New Line.line_EDGE-000218 bus1=bus_JCT-FDR-0002-001 bus2=bus_FUSE-XFMR-000103 linecode=Default length=0.0106 units=mi phases=3
New Line.line_EDGE-000219 bus1=bus_FUSE-XFMR-000103 bus2=bus_XFMR-000103 linecode=Default length=0.0603 units=mi phases=3
New Line.line_EDGE-000220 bus1=bus_JCT-FDR-0002-001 bus2=bus_FUSE-XFMR-000104 linecode=Default length=0.0138 units=mi phases=3
New Line.line_EDGE-000221 bus1=bus_FUSE-XFMR-000104 bus2=bus_XFMR-000104 linecode=Default length=0.0782 units=mi phases=3
New Line.line_EDGE-000222 bus1=bus_JCT-FDR-0002-001 bus2=bus_FUSE-XFMR-000105 linecode=Default length=0.0160 units=mi phases=3
New Line.line_EDGE-000223 bus1=bus_FUSE-XFMR-000105 bus2=bus_XFMR-000105 linecode=Default length=0.0909 units=mi phases=3
New Line.line_EDGE-000224 bus1=bus_JCT-FDR-0002-001 bus2=bus_FUSE-XFMR-000106 linecode=Default length=0.0195 units=mi phases=3
New Line.line_EDGE-000225 bus1=bus_FUSE-XFMR-000106 bus2=bus_XFMR-000106 linecode=Default length=0.1105 units=mi phases=3
New Line.line_EDGE-000226 bus1=bus_JCT-FDR-0002-001 bus2=bus_FUSE-XFMR-000107 linecode=Default length=0.0220 units=mi phases=3
New Line.line_EDGE-000227 bus1=bus_FUSE-XFMR-000107 bus2=bus_XFMR-000107 linecode=Default length=0.1249 units=mi phases=3
New Line.line_EDGE-000228 bus1=bus_JCT-FDR-0002-001 bus2=bus_FUSE-XFMR-000108 linecode=#2_ACSR length=0.0249 units=mi phases=3
New Line.line_EDGE-000229 bus1=bus_FUSE-XFMR-000108 bus2=bus_XFMR-000108 linecode=#2_ACSR length=0.1411 units=mi phases=3
New Line.line_EDGE-000230 bus1=bus_JCT-FDR-0002-001 bus2=bus_FUSE-XFMR-000109 linecode=Default length=0.0279 units=mi phases=3
New Line.line_EDGE-000231 bus1=bus_FUSE-XFMR-000109 bus2=bus_XFMR-000109 linecode=Default length=0.1581 units=mi phases=3
New Line.line_EDGE-000232 bus1=bus_JCT-FDR-0002-001 bus2=bus_FUSE-XFMR-000110 linecode=Default length=0.0305 units=mi phases=3
New Line.line_EDGE-000233 bus1=bus_FUSE-XFMR-000110 bus2=bus_XFMR-000110 linecode=Default length=0.1726 units=mi phases=3
New Line.line_EDGE-000234 bus1=bus_JCT-FDR-0002-001 bus2=bus_FUSE-XFMR-000111 linecode=Default length=0.0333 units=mi phases=3
New Line.line_EDGE-000235 bus1=bus_FUSE-XFMR-000111 bus2=bus_XFMR-000111 linecode=Default length=0.1887 units=mi phases=3
New Line.line_EDGE-000236 bus1=bus_JCT-FDR-0002-001 bus2=bus_FUSE-XFMR-000112 linecode=Default length=0.0365 units=mi phases=3
New Line.line_EDGE-000237 bus1=bus_FUSE-XFMR-000112 bus2=bus_XFMR-000112 linecode=Default length=0.2066 units=mi phases=3