! Distribution Transformers

New Transformer.XFMR-016707 phases=1 windings=2 buses=[bus_388 bus_388_sec] conns=[wye wye] kvs=[12.47 0.24] kvas=[50.0 50.0] %imped=2.5
New Transformer.XFMR-006425 phases=1 windings=2 buses=[bus_526 bus_526_sec] conns=[wye wye] kvs=[12.47 0.24] kvas=[100.0 100.0] %imped=2.5
New Transformer.XFMR-010506 phases=1 windings=2 buses=[bus_408 bus_408_sec] conns=[wye wye] kvs=[12.47 0.24] kvas=[75.0 75.0] %imped=2.5
New Transformer.XFMR-013189 phases=1 windings=2 buses=[bus_555 bus_555_sec] conns=[wye wye] kvs=[12.47 0.24] kvas=[250.0 250.0] %imped=2.5
New Transformer.XFMR-010657 phases=1 windings=2 buses=[bus_803 bus_803_sec] conns=[wye wye] kvs=[12.47 0.24] kvas=[500.0 500.0] %imped=2.5
New Transformer.XFMR-009956 phases=1 windings=2 buses=[bus_132 bus_132_sec] conns=[wye wye] kvs=[12.47 0.24] kvas=[250.0 250.0] %imped=2.5
New Transformer.XFMR-016989 phases=1 windings=2 buses=[bus_841 bus_841_sec] conns=[wye wye] kvs=[12.47 0.24] kvas=[15.0 15.0] %imped=2.5
New Transformer.XFMR-009086 phases=1 windings=2 buses=[bus_427 bus_427_sec] conns=[wye wye] kvs=[12.47 0.24] kvas=[167.0 167.0] %imped=2.5
New Transformer.XFMR-009357 phases=1 windings=2 buses=[bus_506 bus_506_sec] conns=[wye wye] kvs=[12.47 0.24] kvas=[167.0 167.0] %imped=2.5
New Transformer.XFMR-006101 phases=1 windings=2 buses=[bus_505 bus_505_sec] conns=[wye wye] kvs=[12.47 0.24] kvas=[37.5 37.5] %imped=2.5
New Transformer.XFMR-017090 phases=1 windings=2 buses=[bus_766 bus_766_sec] conns=[wye wye] kvs=[12.47 0.24] kvas=[75.0 75.0] %imped=2.5
New Transformer.XFMR-019646 phases=1 windings=2 buses=[bus_322 bus_322_sec] conns=[wye wye] kvs=[12.47 0.24] kvas=[37.5 37.5] %imped=2.5
New Transformer.XFMR-018421 phases=1 windings=2 buses=[bus_318 bus_318_sec] conns=[wye wye] kvs=[12.47 0.24] kvas=[100.0 100.0] %imped=2.5
New Transformer.XFMR-006224 phases=1 windings=2 buses=[bus_251 bus_251_sec] conns=[wye wye] kvs=[12.47 0.24] kvas=[10.0 10.0] %imped=2.5
New Transformer.XFMR-020610 phases=1 windings=2 buses=[bus_291 bus_291_sec] conns=[wye wye] kvs=[12.47 0.24] kvas=[500.0 500.0] %imped=2.5
New Transformer.XFMR-009688 phases=1 windings=2 buses=[bus_397 bus_397_sec] conns=[wye wye] kvs=[12.47 0.24] kvas=[10.0 10.0] %imped=2.5
New Transformer.XFMR-017642 phases=1 windings=2 buses=[bus_86 bus_86_sec] conns=[wye wye] kvs=[12.47 0.24] kvas=[37.5 37.5] %imped=2.5
New Transformer.XFMR-004388 phases=1 windings=2 buses=[bus_952 bus_952_sec] conns=[wye wye] kvs=[12.47 0.24] kvas=[37.5 37.5] %imped=2.5
New Transformer.XFMR-001863 phases=1 windings=2 buses=[bus_903 bus_903_sec] conns=[wye wye] kvs=[12.47 0.24] kvas=[75.0 75.0] %imped=2.5
New Transformer.XFMR-009399 phases=1 windings=2 buses=[bus_487 bus_487_sec] conns=[wye wye] kvs=[12.47 0.24] kvas=[10.0 10.0] %imped=2.5
New Transformer.XFMR-012879 phases=1 windings=2 buses=[bus_954 bus_954_sec] conns=[wye wye] kvs=[12.47 0.24] kvas=[10.0 10.0] %imped=2.5
New Transformer.XFMR-014517 phases=1 windings=2 buses=[bus_67 bus_67_sec] conns=[wye wye] kvs=[12.47 0.24] kvas=[50.0 50.0] %imped=2.5
New Transformer.XFMR-019295 phases=1 windings=2 buses=[bus_509 bus_509_sec] conns=[wye wye] kvs=[12.47 0.24] kvas=[25.0 25.0] %imped=2.5
New Transformer.XFMR-006693 phases=1 windings=2 buses=[bus_913 bus_913_sec] conns=[wye wye] kvs=[12.47 0.24] kvas=[100.0 100.0] %imped=2.5
New Transformer.XFMR-014896 phases=1 windings=2 buses=[bus_998 bus_998_sec] conns=[wye wye] kvs=[12.47 0.24] kvas=[50.0 50.0] %imped=2.5
New Transformer.XFMR-018699 phases=1 windings=2 buses=[bus_334 bus_334_sec] conns=[wye wye] kvs=[12.47 0.24] kvas=[333.0 333.0] %imped=2.5
New Transformer.XFMR-018925 phases=1 windings=2 buses=[bus_274 bus_274_sec] conns=[wye wye] kvs=[12.47 0.24] kvas=[10.0 10.0] %imped=2.5
New Transformer.XFMR-008268 phases=1 windings=2 buses=[bus_88 bus_88_sec] conns=[wye wye] kvs=[12.47 0.24] kvas=[250.0 250.0] %imped=2.5
New Transformer.XFMR-014958 phases=1 windings=2 buses=[bus_113 bus_113_sec] conns=[wye wye] kvs=[12.47 0.24] kvas=[250.0 250.0] %imped=2.5
New Transformer.XFMR-015937 phases=1 windings=2 buses=[bus_938 bus_938_sec] conns=[wye wye] kvs=[12.47 0.24] kvas=[75.0 75.0] %imped=2.5
New Transformer.XFMR-002309 phases=1 windings=2 buses=[bus_298 bus_298_sec] conns=[wye wye] kvs=[12.47 0.24] kvas=[37.5 37.5] %imped=2.5
New Transformer.XFMR-010280 phases=1 windings=2 buses=[bus_291 bus_291_sec] conns=[wye wye] kvs=[12.47 0.24] kvas=[250.0 250.0] %imped=2.5
New Transformer.XFMR-008319 phases=1 windings=2 buses=[bus_796 bus_796_sec] conns=[wye wye] kvs=[12.47 0.24] kvas=[25.0 25.0] %imped=2.5
New Transformer.XFMR-010481 phases=1 windings=2 buses=[bus_213 bus_213_sec] conns=[wye wye] kvs=[12.47 0.24] kvas=[250.0 250.0] %imped=2.5
New Transformer.XFMR-019742 phases=1 windings=2 buses=[bus_737 bus_737_sec] conns=[wye wye] kvs=[12.47 0.24] kvas=[500.0 500.0] %imped=2.5
New Transformer.XFMR-007278 phases=1 windings=2 buses=[bus_655 bus_655_sec] conns=[wye wye] kvs=[12.47 0.24] kvas=[100.0 100.0] %imped=2.5
New Transformer.XFMR-016671 phases=1 windings=2 buses=[bus_723 bus_723_sec] conns=[wye wye] kvs=[12.47 0.24] kvas=[75.0 75.0] %imped=2.5
New Transformer.XFMR-018069 phases=1 windings=2 buses=[bus_999 bus_999_sec] conns=[wye wye] kvs=[12.47 0.24] kvas=[100.0 100.0] %imped=2.5
New Transformer.XFMR-018041 phases=1 windings=2 buses=[bus_381 bus_381_sec] conns=[wye wye] kvs=[12.47 0.24] kvas=[100.0 100.0] %imped=2.5
New Transformer.XFMR-003266 phases=1 windings=2 buses=[bus_41 bus_41_sec] conns=[wye wye] kvs=[12.47 0.24] kvas=[25.0 25.0] %imped=2.5
New Transformer.XFMR-002944 phases=1 windings=2 buses=[bus_592 bus_592_sec] conns=[wye wye] kvs=[12.47 0.24] kvas=[37.5 37.5] %imped=2.5
New Transformer.XFMR-011753 phases=1 windings=2 buses=[bus_831 bus_831_sec] conns=[wye wye] kvs=[12.47 0.24] kvas=[75.0 75.0] %imped=2.5
New Transformer.XFMR-011290 phases=1 windings=2 buses=[bus_857 bus_857_sec] conns=[wye wye] kvs=[12.47 0.24] kvas=[25.0 25.0] %imped=2.5
New Transformer.XFMR-014706 phases=1 windings=2 buses=[bus_824 bus_824_sec] conns=[wye wye] kvs=[12.47 0.24] kvas=[50.0 50.0] %imped=2.5
New Transformer.XFMR-007890 phases=1 windings=2 buses=[bus_866 bus_866_sec] conns=[wye wye] kvs=[12.47 0.24] kvas=[10.0 10.0] %imped=2.5
New Transformer.XFMR-007554 phases=1 windings=2 buses=[bus_806 bus_806_sec] conns=[wye wye] kvs=[12.47 0.24] kvas=[50.0 50.0] %imped=2.5
New Transformer.XFMR-008050 phases=1 windings=2 buses=[bus_844 bus_844_sec] conns=[wye wye] kvs=[12.47 0.24] kvas=[15.0 15.0] %imped=2.5
New Transformer.XFMR-019698 phases=1 windings=2 buses=[bus_861 bus_861_sec] conns=[wye wye] kvs=[12.47 0.24] kvas=[15.0 15.0] %imped=2.5
New Transformer.XFMR-001600 phases=1 windings=2 buses=[bus_934 bus_934_sec] conns=[wye wye] kvs=[12.47 0.24] kvas=[37.5 37.5] %imped=2.5
New Transformer.XFMR-004700 phases=1 windings=2 buses=[bus_467 bus_467_sec] conns=[wye wye] kvs=[12.47 0.24] kvas=[50.0 50.0] %imped=2.5
New Transformer.XFMR-005710 phases=1 windings=2 buses=[bus_838 bus_838_sec] conns=[wye wye] kvs=[12.47 0.24] kvas=[100.0 100.0] %imped=2.5
New Transformer.XFMR-005594 phases=1 windings=2 buses=[bus_53 bus_53_sec] conns=[wye wye] kvs=[12.47 0.24] kvas=[37.5 37.5] %imped=2.5
New Transformer.XFMR-010570 phases=1 windings=2 buses=[bus_601 bus_601_sec] conns=[wye wye] kvs=[12.47 0.24] kvas=[250.0 250.0] %imped=2.5
New Transformer.XFMR-003480 phases=1 windings=2 buses=[bus_541 bus_541_sec] conns=[wye wye] kvs=[12.47 0.24] kvas=[500.0 500.0] %imped=2.5
New Transformer.XFMR-005503 phases=1 windings=2 buses=[bus_59 bus_59_sec] conns=[wye wye] kvs=[12.47 0.24] kvas=[250.0 250.0] %imped=2.5
New Transformer.XFMR-013168 phases=1 windings=2 buses=[bus_95 bus_95_sec] conns=[wye wye] kvs=[12.47 0.24] kvas=[100.0 100.0] %imped=2.5
New Transformer.XFMR-013446 phases=1 windings=2 buses=[bus_341 bus_341_sec] conns=[wye wye] kvs=[12.47 0.24] kvas=[50.0 50.0] %imped=2.5
New Transformer.XFMR-002324 phases=1 windings=2 buses=[bus_876 bus_876_sec] conns=[wye wye] kvs=[12.47 0.24] kvas=[50.0 50.0] %imped=2.5
New Transformer.XFMR-016322 phases=1 windings=2 buses=[bus_262 bus_262_sec] conns=[wye wye] kvs=[12.47 0.24] kvas=[15.0 15.0] %imped=2.5
New Transformer.XFMR-016218 phases=1 windings=2 buses=[bus_83 bus_83_sec] conns=[wye wye] kvs=[12.47 0.24] kvas=[500.0 500.0] %imped=2.5
New Transformer.XFMR-005460 phases=1 windings=2 buses=[bus_732 bus_732_sec] conns=[wye wye] kvs=[12.47 0.24] kvas=[10.0 10.0] %imped=2.5
New Transformer.XFMR-017848 phases=1 windings=2 buses=[bus_330 bus_330_sec] conns=[wye wye] kvs=[12.47 0.24] kvas=[37.5 37.5] %imped=2.5
New Transformer.XFMR-010747 phases=1 windings=2 buses=[bus_89 bus_89_sec] conns=[wye wye] kvs=[12.47 0.24] kvas=[25.0 25.0] %imped=2.5
New Transformer.XFMR-019280 phases=1 windings=2 buses=[bus_812 bus_812_sec] conns=[wye wye] kvs=[12.47 0.24] kvas=[75.0 75.0] %imped=2.5
New Transformer.XFMR-013239 phases=1 windings=2 buses=[bus_990 bus_990_sec] conns=[wye wye] kvs=[12.47 0.24] kvas=[75.0 75.0] %imped=2.5
New Transformer.XFMR-013953 phases=1 windings=2 buses=[bus_128 bus_128_sec] conns=[wye wye] kvs=[12.47 0.24] kvas=[25.0 25.0] %imped=2.5
New Transformer.XFMR-021007 phases=1 windings=2 buses=[bus_337 bus_337_sec] conns=[wye wye] kvs=[12.47 0.24] kvas=[333.0 333.0] %imped=2.5
New Transformer.XFMR-008939 phases=1 windings=2 buses=[bus_956 bus_956_sec] conns=[wye wye] kvs=[12.47 0.24] kvas=[167.0 167.0] %imped=2.5
New Transformer.XFMR-014626 phases=1 windings=2 buses=[bus_107 bus_107_sec] conns=[wye wye] kvs=[12.47 0.24] kvas=[167.0 167.0] %imped=2.5
New Transformer.XFMR-020125 phases=1 windings=2 buses=[bus_997 bus_997_sec] conns=[wye wye] kvs=[12.47 0.24] kvas=[10.0 10.0] %imped=2.5
New Transformer.XFMR-004033 phases=1 windings=2 buses=[bus_169 bus_169_sec] conns=[wye wye] kvs=[12.47 0.24] kvas=[100.0 100.0] %imped=2.5
New Transformer.XFMR-013338 phases=1 windings=2 buses=[bus_253 bus_253_sec] conns=[wye wye] kvs=[12.47 0.24] kvas=[10.0 10.0] %imped=2.5
New Transformer.XFMR-021081 phases=1 windings=2 buses=[bus_503 bus_503_sec] conns=[wye wye] kvs=[12.47 0.24] kvas=[333.0 333.0] %imped=2.5
New Transformer.XFMR-011153 phases=1 windings=2 buses=[bus_464 bus_464_sec] conns=[wye wye] kvs=[12.47 0.24] kvas=[333.0 333.0] %imped=2.5
New Transformer.XFMR-017394 phases=1 windings=2 buses=[bus_28 bus_28_sec] conns=[wye wye] kvs=[12.47 0.24] kvas=[167.0 167.0] %imped=2.5
New Transformer.XFMR-009995 phases=1 windings=2 buses=[bus_159 bus_159_sec] conns=[wye wye] kvs=[12.47 0.24] kvas=[25.0 25.0] %imped=2.5
New Transformer.XFMR-018199 phases=1 windings=2 buses=[bus_24 bus_24_sec] conns=[wye wye] kvs=[12.47 0.24] kvas=[167.0 167.0] %imped=2.5
New Transformer.XFMR-003722 phases=1 windings=2 buses=[bus_150 bus_150_sec] conns=[wye wye] kvs=[12.47 0.24] kvas=[250.0 250.0] %imped=2.5
New Transformer.XFMR-020542 phases=1 windings=2 buses=[bus_974 bus_974_sec] conns=[wye wye] kvs=[12.47 0.24] kvas=[25.0 25.0] %imped=2.5
New Transformer.XFMR-006420 phases=1 windings=2 buses=[bus_811 bus_811_sec] conns=[wye wye] kvs=[12.47 0.24] kvas=[100.0 100.0] %imped=2.5
New Transformer.XFMR-006660 phases=1 windings=2 buses=[bus_662 bus_662_sec] conns=[wye wye] kvs=[12.47 0.24] kvas=[167.0 167.0] %imped=2.5
New Transformer.XFMR-021349 phases=1 windings=2 buses=[bus_778 bus_778_sec] conns=[wye wye] kvs=[12.47 0.24] kvas=[37.5 37.5] %imped=2.5
New Transformer.XFMR-003844 phases=1 windings=2 buses=[bus_535 bus_535_sec] conns=[wye wye] kvs=[12.47 0.24] kvas=[250.0 250.0] %imped=2.5
New Transformer.XFMR-018197 phases=1 windings=2 buses=[bus_366 bus_366_sec] conns=[wye wye] kvs=[12.47 0.24] kvas=[167.0 167.0] %imped=2.5
New Transformer.XFMR-000607 phases=1 windings=2 buses=[bus_885 bus_885_sec] conns=[wye wye] kvs=[12.47 0.24] kvas=[15.0 15.0] %imped=2.5
New Transformer.XFMR-012734 phases=1 windings=2 buses=[bus_529 bus_529_sec] conns=[wye wye] kvs=[12.47 0.24] kvas=[15.0 15.0] %imped=2.5
New Transformer.XFMR-014497 phases=1 windings=2 buses=[bus_438 bus_438_sec] conns=[wye wye] kvs=[12.47 0.24] kvas=[500.0 500.0] %imped=2.5
New Transformer.XFMR-012888 phases=1 windings=2 buses=[bus_974 bus_974_sec] conns=[wye wye] kvs=[12.47 0.24] kvas=[50.0 50.0] %imped=2.5
New Transformer.XFMR-012341 phases=1 windings=2 buses=[bus_218 bus_218_sec] conns=[wye wye] kvs=[12.47 0.24] kvas=[250.0 250.0] %imped=2.5
New Transformer.XFMR-010331 phases=1 windings=2 buses=[bus_726 bus_726_sec] conns=[wye wye] kvs=[12.47 0.24] kvas=[37.5 37.5] %imped=2.5
New Transformer.XFMR-006563 phases=1 windings=2 buses=[bus_837 bus_837_sec] conns=[wye wye] kvs=[12.47 0.24] kvas=[250.0 250.0] %imped=2.5
New Transformer.XFMR-007535 phases=1 windings=2 buses=[bus_474 bus_474_sec] conns=[wye wye] kvs=[12.47 0.24] kvas=[37.5 37.5] %imped=2.5
New Transformer.XFMR-006416 phases=1 windings=2 buses=[bus_44 bus_44_sec] conns=[wye wye] kvs=[12.47 0.24] kvas=[75.0 75.0] %imped=2.5
New Transformer.XFMR-009839 phases=1 windings=2 buses=[bus_835 bus_835_sec] conns=[wye wye] kvs=[12.47 0.24] kvas=[50.0 50.0] %imped=2.5
New Transformer.XFMR-016362 phases=1 windings=2 buses=[bus_679 bus_679_sec] conns=[wye wye] kvs=[12.47 0.24] kvas=[75.0 75.0] %imped=2.5
New Transformer.XFMR-005567 phases=1 windings=2 buses=[bus_978 bus_978_sec] conns=[wye wye] kvs=[12.47 0.24] kvas=[333.0 333.0] %imped=2.5
New Transformer.XFMR-002251 phases=1 windings=2 buses=[bus_689 bus_689_sec] conns=[wye wye] kvs=[12.47 0.24] kvas=[250.0 250.0] %imped=2.5
New Transformer.XFMR-015585 phases=1 windings=2 buses=[bus_470 bus_470_sec] conns=[wye wye] kvs=[12.47 0.24] kvas=[100.0 100.0] %imped=2.5
New Transformer.XFMR-017936 phases=1 windings=2 buses=[bus_398 bus_398_sec] conns=[wye wye] kvs=[12.47 0.24] kvas=[37.5 37.5] %imped=2.5
New Transformer.XFMR-009556 phases=1 windings=2 buses=[bus_483 bus_483_sec] conns=[wye wye] kvs=[12.47 0.24] kvas=[333.0 333.0] %imped=2.5
New Transformer.XFMR-017707 phases=1 windings=2 buses=[bus_59 bus_59_sec] conns=[wye wye] kvs=[12.47 0.24] kvas=[10.0 10.0] %imped=2.5
New Transformer.XFMR-005130 phases=1 windings=2 buses=[bus_378 bus_378_sec] conns=[wye wye] kvs=[12.47 0.24] kvas=[10.0 10.0] %imped=2.5
New Transformer.XFMR-006129 phases=1 windings=2 buses=[bus_818 bus_818_sec] conns=[wye wye] kvs=[12.47 0.24] kvas=[75.0 75.0] %imped=2.5
New Transformer.XFMR-015000 phases=1 windings=2 buses=[bus_64 bus_64_sec] conns=[wye wye] kvs=[12.47 0.24] kvas=[75.0 75.0] %imped=2.5
New Transformer.XFMR-019225 phases=1 windings=2 buses=[bus_90 bus_90_sec] conns=[wye wye] kvs=[12.47 0.24] kvas=[250.0 250.0] %imped=2.5
New Transformer.XFMR-007752 phases=1 windings=2 buses=[bus_771 bus_771_sec] conns=[wye wye] kvs=[12.47 0.24] kvas=[333.0 333.0] %imped=2.5
New Transformer.XFMR-016845 phases=1 windings=2 buses=[bus_699 bus_699_sec] conns=[wye wye] kvs=[12.47 0.24] kvas=[75.0 75.0] %imped=2.5
New Transformer.XFMR-017168 phases=1 windings=2 buses=[bus_854 bus_854_sec] conns=[wye wye] kvs=[12.47 0.24] kvas=[50.0 50.0] %imped=2.5
New Transformer.XFMR-001806 phases=1 windings=2 buses=[bus_463 bus_463_sec] conns=[wye wye] kvs=[12.47 0.24] kvas=[333.0 333.0] %imped=2.5
New Transformer.XFMR-010753 phases=1 windings=2 buses=[bus_52 bus_52_sec] conns=[wye wye] kvs=[12.47 0.24] kvas=[100.0 100.0] %imped=2.5
New Transformer.XFMR-007050 phases=1 windings=2 buses=[bus_107 bus_107_sec] conns=[wye wye] kvs=[12.47 0.24] kvas=[250.0 250.0] %imped=2.5
New Transformer.XFMR-019371 phases=1 windings=2 buses=[bus_642 bus_642_sec] conns=[wye wye] kvs=[12.47 0.24] kvas=[50.0 50.0] %imped=2.5
New Transformer.XFMR-004743 phases=1 windings=2 buses=[bus_158 bus_158_sec] conns=[wye wye] kvs=[12.47 0.24] kvas=[167.0 167.0] %imped=2.5
New Transformer.XFMR-017022 phases=1 windings=2 buses=[bus_265 bus_265_sec] conns=[wye wye] kvs=[12.47 0.24] kvas=[75.0 75.0] %imped=2.5
New Transformer.XFMR-003966 phases=1 windings=2 buses=[bus_472 bus_472_sec] conns=[wye wye] kvs=[12.47 0.24] kvas=[15.0 15.0] %imped=2.5
New Transformer.XFMR-012787 phases=1 windings=2 buses=[bus_673 bus_673_sec] conns=[wye wye] kvs=[12.47 0.24] kvas=[15.0 15.0] %imped=2.5
New Transformer.XFMR-007232 phases=1 windings=2 buses=[bus_732 bus_732_sec] conns=[wye wye] kvs=[12.47 0.24] kvas=[50.0 50.0] %imped=2.5
New Transformer.XFMR-006012 phases=1 windings=2 buses=[bus_683 bus_683_sec] conns=[wye wye] kvs=[12.47 0.24] kvas=[167.0 167.0] %imped=2.5
New Transformer.XFMR-007628 phases=1 windings=2 buses=[bus_456 bus_456_sec] conns=[wye wye] kvs=[12.47 0.24] kvas=[500.0 500.0] %imped=2.5
New Transformer.XFMR-010773 phases=1 windings=2 buses=[bus_953 bus_953_sec] conns=[wye wye] kvs=[12.47 0.24] kvas=[100.0 100.0] %imped=2.5
New Transformer.XFMR-021260 phases=1 windings=2 buses=[bus_701 bus_701_sec] conns=[wye wye] kvs=[12.47 0.24] kvas=[37.5 37.5] %imped=2.5
New Transformer.XFMR-016939 phases=1 windings=2 buses=[bus_582 bus_582_sec] conns=[wye wye] kvs=[12.47 0.24] kvas=[500.0 500.0] %imped=2.5
New Transformer.XFMR-006004 phases=1 windings=2 buses=[bus_634 bus_634_sec] conns=[wye wye] kvs=[12.47 0.24] kvas=[10.0 10.0] %imped=2.5
New Transformer.XFMR-013093 phases=1 windings=2 buses=[bus_491 bus_491_sec] conns=[wye wye] kvs=[12.47 0.24] kvas=[15.0 15.0] %imped=2.5
New Transformer.XFMR-006668 phases=1 windings=2 buses=[bus_934 bus_934_sec] conns=[wye wye] kvs=[12.47 0.24] kvas=[75.0 75.0] %imped=2.5
New Transformer.XFMR-006484 phases=1 windings=2 buses=[bus_473 bus_473_sec] conns=[wye wye] kvs=[12.47 0.24] kvas=[15.0 15.0] %imped=2.5
New Transformer.XFMR-021426 phases=1 windings=2 buses=[bus_307 bus_307_sec] conns=[wye wye] kvs=[12.47 0.24] kvas=[75.0 75.0] %imped=2.5
New Transformer.XFMR-013489 phases=1 windings=2 buses=[bus_216 bus_216_sec] conns=[wye wye] kvs=[12.47 0.24] kvas=[75.0 75.0] %imped=2.5
New Transformer.XFMR-009039 phases=1 windings=2 buses=[bus_56 bus_56_sec] conns=[wye wye] kvs=[12.47 0.24] kvas=[250.0 250.0] %imped=2.5
New Transformer.XFMR-000564 phases=1 windings=2 buses=[bus_538 bus_538_sec] conns=[wye wye] kvs=[12.47 0.24] kvas=[15.0 15.0] %imped=2.5
New Transformer.XFMR-009614 phases=1 windings=2 buses=[bus_221 bus_221_sec] conns=[wye wye] kvs=[12.47 0.24] kvas=[10.0 10.0] %imped=2.5
New Transformer.XFMR-020112 phases=1 windings=2 buses=[bus_664 bus_664_sec] conns=[wye wye] kvs=[12.47 0.24] kvas=[37.5 37.5] %imped=2.5
New Transformer.XFMR-015498 phases=1 windings=2 buses=[bus_245 bus_245_sec] conns=[wye wye] kvs=[12.47 0.24] kvas=[500.0 500.0] %imped=2.5
New Transformer.XFMR-010251 phases=1 windings=2 buses=[bus_337 bus_337_sec] conns=[wye wye] kvs=[12.47 0.24] kvas=[250.0 250.0] %imped=2.5
New Transformer.XFMR-004548 phases=1 windings=2 buses=[bus_67 bus_67_sec] conns=[wye wye] kvs=[12.47 0.24] kvas=[500.0 500.0] %imped=2.5
New Transformer.XFMR-005217 phases=1 windings=2 buses=[bus_895 bus_895_sec] conns=[wye wye] kvs=[12.47 0.24] kvas=[75.0 75.0] %imped=2.5
New Transformer.XFMR-020639 phases=1 windings=2 buses=[bus_587 bus_587_sec] conns=[wye wye] kvs=[12.47 0.24] kvas=[75.0 75.0] %imped=2.5
New Transformer.XFMR-006815 phases=1 windings=2 buses=[bus_642 bus_642_sec] conns=[wye wye] kvs=[12.47 0.24] kvas=[500.0 500.0] %imped=2.5
New Transformer.XFMR-019387 phases=1 windings=2 buses=[bus_517 bus_517_sec] conns=[wye wye] kvs=[12.47 0.24] kvas=[25.0 25.0] %imped=2.5
New Transformer.XFMR-000555 phases=1 windings=2 buses=[bus_693 bus_693_sec] conns=[wye wye] kvs=[12.47 0.24] kvas=[37.5 37.5] %imped=2.5
New Transformer.XFMR-007478 phases=1 windings=2 buses=[bus_804 bus_804_sec] conns=[wye wye] kvs=[12.47 0.24] kvas=[333.0 333.0] %imped=2.5
New Transformer.XFMR-016338 phases=1 windings=2 buses=[bus_869 bus_869_sec] conns=[wye wye] kvs=[12.47 0.24] kvas=[100.0 100.0] %imped=2.5
New Transformer.XFMR-002335 phases=1 windings=2 buses=[bus_953 bus_953_sec] conns=[wye wye] kvs=[12.47 0.24] kvas=[50.0 50.0] %imped=2.5
New Transformer.XFMR-013720 phases=1 windings=2 buses=[bus_649 bus_649_sec] conns=[wye wye] kvs=[12.47 0.24] kvas=[250.0 250.0] %imped=2.5
New Transformer.XFMR-004085 phases=1 windings=2 buses=[bus_91 bus_91_sec] conns=[wye wye] kvs=[12.47 0.24] kvas=[10.0 10.0] %imped=2.5
New Transformer.XFMR-001088 phases=1 windings=2 buses=[bus_466 bus_466_sec] conns=[wye wye] kvs=[12.47 0.24] kvas=[167.0 167.0] %imped=2.5
New Transformer.XFMR-016938 phases=1 windings=2 buses=[bus_827 bus_827_sec] conns=[wye wye] kvs=[12.47 0.24] kvas=[37.5 37.5] %imped=2.5
New Transformer.XFMR-009273 phases=1 windings=2 buses=[bus_930 bus_930_sec] conns=[wye wye] kvs=[12.47 0.24] kvas=[500.0 500.0] %imped=2.5
New Transformer.XFMR-008592 phases=1 windings=2 buses=[bus_873 bus_873_sec] conns=[wye wye] kvs=[12.47 0.24] kvas=[10.0 10.0] %imped=2.5
New Transformer.XFMR-018116 phases=1 windings=2 buses=[bus_27 bus_27_sec] conns=[wye wye] kvs=[12.47 0.24] kvas=[25.0 25.0] %imped=2.5
New Transformer.XFMR-005216 phases=1 windings=2 buses=[bus_292 bus_292_sec] conns=[wye wye] kvs=[12.47 0.24] kvas=[167.0 167.0] %imped=2.5
New Transformer.XFMR-007882 phases=1 windings=2 buses=[bus_876 bus_876_sec] conns=[wye wye] kvs=[12.47 0.24] kvas=[25.0 25.0] %imped=2.5
New Transformer.XFMR-006341 phases=1 windings=2 buses=[bus_335 bus_335_sec] conns=[wye wye] kvs=[12.47 0.24] kvas=[75.0 75.0] %imped=2.5
New Transformer.XFMR-007657 phases=1 windings=2 buses=[bus_72 bus_72_sec] conns=[wye wye] kvs=[12.47 0.24] kvas=[333.0 333.0] %imped=2.5
New Transformer.XFMR-012404 phases=1 windings=2 buses=[bus_347 bus_347_sec] conns=[wye wye] kvs=[12.47 0.24] kvas=[250.0 250.0] %imped=2.5
New Transformer.XFMR-020665 phases=1 windings=2 buses=[bus_855 bus_855_sec] conns=[wye wye] kvs=[12.47 0.24] kvas=[167.0 167.0] %imped=2.5
New Transformer.XFMR-015810 phases=1 windings=2 buses=[bus_157 bus_157_sec] conns=[wye wye] kvs=[12.47 0.24] kvas=[10.0 10.0] %imped=2.5
New Transformer.XFMR-010529 phases=1 windings=2 buses=[bus_803 bus_803_sec] conns=[wye wye] kvs=[12.47 0.24] kvas=[250.0 250.0] %imped=2.5
New Transformer.XFMR-006827 phases=1 windings=2 buses=[bus_248 bus_248_sec] conns=[wye wye] kvs=[12.47 0.24] kvas=[75.0 75.0] %imped=2.5
New Transformer.XFMR-010224 phases=1 windings=2 buses=[bus_881 bus_881_sec] conns=[wye wye] kvs=[12.47 0.24] kvas=[15.0 15.0] %imped=2.5
New Transformer.XFMR-020066 phases=1 windings=2 buses=[bus_749 bus_749_sec] conns=[wye wye] kvs=[12.47 0.24] kvas=[100.0 100.0] %imped=2.5
New Transformer.XFMR-019511 phases=1 windings=2 buses=[bus_610 bus_610_sec] conns=[wye wye] kvs=[12.47 0.24] kvas=[25.0 25.0] %imped=2.5
New Transformer.XFMR-015420 phases=1 windings=2 buses=[bus_736 bus_736_sec] conns=[wye wye] kvs=[12.47 0.24] kvas=[500.0 500.0] %imped=2.5
New Transformer.XFMR-014488 phases=1 windings=2 buses=[bus_811 bus_811_sec] conns=[wye wye] kvs=[12.47 0.24] kvas=[250.0 250.0] %imped=2.5
New Transformer.XFMR-011508 phases=1 windings=2 buses=[bus_478 bus_478_sec] conns=[wye wye] kvs=[12.47 0.24] kvas=[100.0 100.0] %imped=2.5
New Transformer.XFMR-005722 phases=1 windings=2 buses=[bus_398 bus_398_sec] conns=[wye wye] kvs=[12.47 0.24] kvas=[500.0 500.0] %imped=2.5
New Transformer.XFMR-015960 phases=1 windings=2 buses=[bus_942 bus_942_sec] conns=[wye wye] kvs=[12.47 0.24] kvas=[15.0 15.0] %imped=2.5
New Transformer.XFMR-019184 phases=1 windings=2 buses=[bus_731 bus_731_sec] conns=[wye wye] kvs=[12.47 0.24] kvas=[167.0 167.0] %imped=2.5
New Transformer.XFMR-013944 phases=1 windings=2 buses=[bus_319 bus_319_sec] conns=[wye wye] kvs=[12.47 0.24] kvas=[37.5 37.5] %imped=2.5
New Transformer.XFMR-021481 phases=1 windings=2 buses=[bus_641 bus_641_sec] conns=[wye wye] kvs=[12.47 0.24] kvas=[250.0 250.0] %imped=2.5
New Transformer.XFMR-012640 phases=1 windings=2 buses=[bus_233 bus_233_sec] conns=[wye wye] kvs=[12.47 0.24] kvas=[10.0 10.0] %imped=2.5
New Transformer.XFMR-009882 phases=1 windings=2 buses=[bus_137 bus_137_sec] conns=[wye wye] kvs=[12.47 0.24] kvas=[100.0 100.0] %imped=2.5
New Transformer.XFMR-008442 phases=1 windings=2 buses=[bus_869 bus_869_sec] conns=[wye wye] kvs=[12.47 0.24] kvas=[167.0 167.0] %imped=2.5
New Transformer.XFMR-017285 phases=1 windings=2 buses=[bus_291 bus_291_sec] conns=[wye wye] kvs=[12.47 0.24] kvas=[333.0 333.0] %imped=2.5
New Transformer.XFMR-018752 phases=1 windings=2 buses=[bus_915 bus_915_sec] conns=[wye wye] kvs=[12.47 0.24] kvas=[50.0 50.0] %imped=2.5
New Transformer.XFMR-008059 phases=1 windings=2 buses=[bus_77 bus_77_sec] conns=[wye wye] kvs=[12.47 0.24] kvas=[50.0 50.0] %imped=2.5
New Transformer.XFMR-002146 phases=1 windings=2 buses=[bus_289 bus_289_sec] conns=[wye wye] kvs=[12.47 0.24] kvas=[100.0 100.0] %imped=2.5
New Transformer.XFMR-017017 phases=1 windings=2 buses=[bus_414 bus_414_sec] conns=[wye wye] kvs=[12.47 0.24] kvas=[75.0 75.0] %imped=2.5
New Transformer.XFMR-016740 phases=1 windings=2 buses=[bus_80 bus_80_sec] conns=[wye wye] kvs=[12.47 0.24] kvas=[250.0 250.0] %imped=2.5
New Transformer.XFMR-013502 phases=1 windings=2 buses=[bus_697 bus_697_sec] conns=[wye wye] kvs=[12.47 0.24] kvas=[250.0 250.0] %imped=2.5
New Transformer.XFMR-017283 phases=1 windings=2 buses=[bus_965 bus_965_sec] conns=[wye wye] kvs=[12.47 0.24] kvas=[50.0 50.0] %imped=2.5
New Transformer.XFMR-005953 phases=1 windings=2 buses=[bus_189 bus_189_sec] conns=[wye wye] kvs=[12.47 0.24] kvas=[50.0 50.0] %imped=2.5
New Transformer.XFMR-004157 phases=1 windings=2 buses=[bus_215 bus_215_sec] conns=[wye wye] kvs=[12.47 0.24] kvas=[25.0 25.0] %imped=2.5
New Transformer.XFMR-007749 phases=1 windings=2 buses=[bus_817 bus_817_sec] conns=[wye wye] kvs=[12.47 0.24] kvas=[167.0 167.0] %imped=2.5
New Transformer.XFMR-002755 phases=1 windings=2 buses=[bus_816 bus_816_sec] conns=[wye wye] kvs=[12.47 0.24] kvas=[25.0 25.0] %imped=2.5
New Transformer.XFMR-017196 phases=1 windings=2 buses=[bus_183 bus_183_sec] conns=[wye wye] kvs=[12.47 0.24] kvas=[500.0 500.0] %imped=2.5
New Transformer.XFMR-001093 phases=1 windings=2 buses=[bus_533 bus_533_sec] conns=[wye wye] kvs=[12.47 0.24] kvas=[167.0 167.0] %imped=2.5
New Transformer.XFMR-010257 phases=1 windings=2 buses=[bus_671 bus_671_sec] conns=[wye wye] kvs=[12.47 0.24] kvas=[37.5 37.5] %imped=2.5
New Transformer.XFMR-002699 phases=1 windings=2 buses=[bus_427 bus_427_sec] conns=[wye wye] kvs=[12.47 0.24] kvas=[333.0 333.0] %imped=2.5
New Transformer.XFMR-009624 phases=1 windings=2 buses=[bus_952 bus_952_sec] conns=[wye wye] kvs=[12.47 0.24] kvas=[250.0 250.0] %imped=2.5
New Transformer.XFMR-017288 phases=1 windings=2 buses=[bus_560 bus_560_sec] conns=[wye wye] kvs=[12.47 0.24] kvas=[50.0 50.0] %imped=2.5
New Transformer.XFMR-009239 phases=1 windings=2 buses=[bus_798 bus_798_sec] conns=[wye wye] kvs=[12.47 0.24] kvas=[500.0 500.0] %imped=2.5
New Transformer.XFMR-002154 phases=1 windings=2 buses=[bus_382 bus_382_sec] conns=[wye wye] kvs=[12.47 0.24] kvas=[50.0 50.0] %imped=2.5
New Transformer.XFMR-007884 phases=1 windings=2 buses=[bus_756 bus_756_sec] conns=[wye wye] kvs=[12.47 0.24] kvas=[10.0 10.0] %imped=2.5
New Transformer.XFMR-009566 phases=1 windings=2 buses=[bus_374 bus_374_sec] conns=[wye wye] kvs=[12.47 0.24] kvas=[167.0 167.0] %imped=2.5
New Transformer.XFMR-021351 phases=1 windings=2 buses=[bus_955 bus_955_sec] conns=[wye wye] kvs=[12.47 0.24] kvas=[25.0 25.0] %imped=2.5
New Transformer.XFMR-000045 phases=1 windings=2 buses=[bus_533 bus_533_sec] conns=[wye wye] kvs=[12.47 0.24] kvas=[75.0 75.0] %imped=2.5
New Transformer.XFMR-007501 phases=1 windings=2 buses=[bus_212 bus_212_sec] conns=[wye wye] kvs=[12.47 0.24] kvas=[333.0 333.0] %imped=2.5
New Transformer.XFMR-002849 phases=1 windings=2 buses=[bus_162 bus_162_sec] conns=[wye wye] kvs=[12.47 0.24] kvas=[50.0 50.0] %imped=2.5
New Transformer.XFMR-011916 phases=1 windings=2 buses=[bus_949 bus_949_sec] conns=[wye wye] kvs=[12.47 0.24] kvas=[100.0 100.0] %imped=2.5
New Transformer.XFMR-000504 phases=1 windings=2 buses=[bus_611 bus_611_sec] conns=[wye wye] kvs=[12.47 0.24] kvas=[75.0 75.0] %imped=2.5
New Transformer.XFMR-007696 phases=1 windings=2 buses=[bus_379 bus_379_sec] conns=[wye wye] kvs=[12.47 0.24] kvas=[15.0 15.0] %imped=2.5
New Transformer.XFMR-014003 phases=1 windings=2 buses=[bus_268 bus_268_sec] conns=[wye wye] kvs=[12.47 0.24] kvas=[250.0 250.0] %imped=2.5
New Transformer.XFMR-003483 phases=1 windings=2 buses=[bus_959 bus_959_sec] conns=[wye wye] kvs=[12.47 0.24] kvas=[100.0 100.0] %imped=2.5
New Transformer.XFMR-019630 phases=1 windings=2 buses=[bus_485 bus_485_sec] conns=[wye wye] kvs=[12.47 0.24] kvas=[333.0 333.0] %imped=2.5
New Transformer.XFMR-011021 phases=1 windings=2 buses=[bus_125 bus_125_sec] conns=[wye wye] kvs=[12.47 0.24] kvas=[15.0 15.0] %imped=2.5
New Transformer.XFMR-004310 phases=1 windings=2 buses=[bus_65 bus_65_sec] conns=[wye wye] kvs=[12.47 0.24] kvas=[500.0 500.0] %imped=2.5
New Transformer.XFMR-001871 phases=1 windings=2 buses=[bus_338 bus_338_sec] conns=[wye wye] kvs=[12.47 0.24] kvas=[333.0 333.0] %imped=2.5
New Transformer.XFMR-001457 phases=1 windings=2 buses=[bus_440 bus_440_sec] conns=[wye wye] kvs=[12.47 0.24] kvas=[167.0 167.0] %imped=2.5
New Transformer.XFMR-007204 phases=1 windings=2 buses=[bus_809 bus_809_sec] conns=[wye wye] kvs=[12.47 0.24] kvas=[10.0 10.0] %imped=2.5
New Transformer.XFMR-008384 phases=1 windings=2 buses=[bus_184 bus_184_sec] conns=[wye wye] kvs=[12.47 0.24] kvas=[25.0 25.0] %imped=2.5
New Transformer.XFMR-019968 phases=1 windings=2 buses=[bus_658 bus_658_sec] conns=[wye wye] kvs=[12.47 0.24] kvas=[100.0 100.0] %imped=2.5
New Transformer.XFMR-004933 phases=1 windings=2 buses=[bus_920 bus_920_sec] conns=[wye wye] kvs=[12.47 0.24] kvas=[10.0 10.0] %imped=2.5
New Transformer.XFMR-004008 phases=1 windings=2 buses=[bus_191 bus_191_sec] conns=[wye wye] kvs=[12.47 0.24] kvas=[15.0 15.0] %imped=2.5
New Transformer.XFMR-011725 phases=1 windings=2 buses=[bus_998 bus_998_sec] conns=[wye wye] kvs=[12.47 0.24] kvas=[500.0 500.0] %imped=2.5
New Transformer.XFMR-017697 phases=1 windings=2 buses=[bus_502 bus_502_sec] conns=[wye wye] kvs=[12.47 0.24] kvas=[25.0 25.0] %imped=2.5
New Transformer.XFMR-015222 phases=1 windings=2 buses=[bus_649 bus_649_sec] conns=[wye wye] kvs=[12.47 0.24] kvas=[37.5 37.5] %imped=2.5